Version 4
SHEET 1 880 680
WIRE 128 32 16 32
WIRE 96 48 96 0
WIRE 144 48 96 48
WIRE 96 64 96 48
WIRE 64 80 0 80
WIRE 208 96 208 32
WIRE 208 96 128 96
WIRE 320 96 288 96
WIRE 512 96 320 96
WIRE -144 112 -240 112
WIRE -112 112 -144 112
WIRE 16 112 16 32
WIRE 16 112 -32 112
WIRE 64 112 16 112
WIRE -240 160 -240 112
WIRE 0 160 0 80
WIRE 96 160 96 128
WIRE 160 160 96 160
WIRE 320 192 320 160
WIRE 416 192 320 192
WIRE 512 192 512 160
WIRE 512 192 416 192
WIRE 416 208 416 192
WIRE 48 304 16 304
WIRE 176 304 128 304
WIRE 144 336 144 48
WIRE 144 336 96 336
WIRE 96 352 96 336
WIRE 64 368 0 368
WIRE 176 384 176 304
WIRE 176 384 128 384
WIRE 208 384 176 384
WIRE 336 384 288 384
WIRE -144 400 -144 112
WIRE -112 400 -144 400
WIRE 16 400 16 304
WIRE 16 400 -32 400
WIRE 64 400 16 400
WIRE 96 432 96 416
WIRE 160 432 160 160
WIRE 160 432 96 432
WIRE 0 464 0 368
FLAG 0 240 0
FLAG -240 240 0
FLAG 96 -80 0
FLAG 96 240 0
FLAG 416 208 0
FLAG 0 544 0
FLAG 336 448 0
SYMBOL OpAmps\\UniversalOpAmp 96 96 R0
SYMATTR InstName U1
SYMBOL voltage -240 144 R0
WINDOW 123 0 0 Left 0
WINDOW 39 0 0 Left 0
SYMATTR InstName V1
SYMATTR Value 0.75
SYMBOL res -16 96 R90
WINDOW 0 0 56 VBottom 2
WINDOW 3 32 56 VTop 2
SYMATTR InstName R1
SYMATTR Value 100
SYMBOL voltage 0 144 R0
WINDOW 123 0 0 Left 0
WINDOW 39 0 0 Left 0
SYMATTR InstName V2
SYMATTR Value 0.374
SYMBOL voltage 96 16 R180
WINDOW 0 24 96 Left 2
WINDOW 3 24 16 Left 2
WINDOW 123 0 0 Left 0
WINDOW 39 0 0 Left 0
SYMATTR InstName V3
SYMATTR Value 5
SYMBOL voltage 96 144 R0
WINDOW 123 0 0 Left 0
WINDOW 39 0 0 Left 0
SYMATTR InstName V4
SYMATTR Value -5
SYMBOL res 224 16 R90
WINDOW 0 0 56 VBottom 2
WINDOW 3 32 56 VTop 2
SYMATTR InstName R2
SYMATTR Value 10k
SYMBOL res 304 80 R90
WINDOW 0 0 56 VBottom 2
WINDOW 3 32 56 VTop 2
SYMATTR InstName R3
SYMATTR Value 1k
SYMBOL LED 304 96 R0
SYMATTR InstName Orange
SYMBOL LED 528 160 R180
WINDOW 0 24 64 Left 2
WINDOW 3 24 0 Left 2
SYMATTR InstName Green
SYMBOL res -16 384 R90
WINDOW 0 0 56 VBottom 2
WINDOW 3 32 56 VTop 2
SYMATTR InstName R4
SYMATTR Value 30
SYMBOL OpAmps\\UniversalOpAmp 96 384 R0
SYMATTR InstName U2
SYMBOL res 144 288 R90
WINDOW 0 0 56 VBottom 2
WINDOW 3 32 56 VTop 2
SYMATTR InstName R5
SYMATTR Value 1.5k
SYMBOL voltage 0 448 R0
WINDOW 123 0 0 Left 0
WINDOW 39 0 0 Left 0
SYMATTR InstName V5
SYMATTR Value 0.8824
SYMBOL res 304 368 R90
WINDOW 0 0 56 VBottom 2
WINDOW 3 32 56 VTop 2
SYMATTR InstName R6
SYMATTR Value 1k
SYMBOL LED 320 384 R0
SYMATTR InstName Red
TEXT 224 608 Left 2 !.op
